Aspirin
     RDKit          3D

 21 21  0  0  0  0  0  0  0  0999 V2000
   -2.7912   -2.2404   -0.0405 C   0  0  0  0  0  0  0  0  0  0  0  0
   -1.9435   -1.0734    0.3045 C   0  0  0  0  0  0  0  0  0  0  0  0
   -2.1230   -0.4797    1.3736 O   0  0  0  0  0  0  0  0  0  0  0  0
   -0.9729   -0.7008   -0.6090 O   0  0  0  0  0  0  0  0  0  0  0  0
   -0.1054    0.3376   -0.4675 C   0  0  0  0  0  0  0  0  0  0  0  0
   -0.4796    1.5802   -0.9423 C   0  0  0  0  0  0  0  0  0  0  0  0
    0.3761    2.6675   -0.8181 C   0  0  0  0  0  0  0  0  0  0  0  0
    1.6180    2.5533   -0.2235 C   0  0  0  0  0  0  0  0  0  0  0  0
    1.9814    1.3109    0.2464 C   0  0  0  0  0  0  0  0  0  0  0  0
    1.1385    0.2234    0.1280 C   0  0  0  0  0  0  0  0  0  0  0  0
    1.5425   -1.0837    0.6323 C   0  0  0  0  0  0  0  0  0  0  0  0
    0.7861   -2.0583    0.5258 O   0  0  0  0  0  0  0  0  0  0  0  0
    2.7725   -1.2715    1.2394 O   0  0  0  0  0  0  0  0  0  0  0  0
   -2.9931   -2.2362   -1.1494 H   0  0  0  0  0  0  0  0  0  0  0  0
   -3.7238   -2.2114    0.5575 H   0  0  0  0  0  0  0  0  0  0  0  0
   -2.2298   -3.1797    0.1373 H   0  0  0  0  0  0  0  0  0  0  0  0
   -1.4283    1.7355   -1.4132 H   0  0  0  0  0  0  0  0  0  0  0  0
    0.0743    3.6407   -1.1940 H   0  0  0  0  0  0  0  0  0  0  0  0
    2.2506    3.4259   -0.1485 H   0  0  0  0  0  0  0  0  0  0  0  0
    2.9612    1.2142    0.7170 H   0  0  0  0  0  0  0  0  0  0  0  0
    3.2895   -2.1540    1.1443 H   0  0  0  0  0  0  0  0  0  0  0  0
  1  2  1  0
  2  3  2  0
  2  4  1  0
  4  5  1  0
  5  6  2  0
  6  7  1  0
  7  8  2  0
  8  9  1  0
  9 10  2  0
 10 11  1  0
 11 12  2  0
 11 13  1  0
 10  5  1  0
  1 14  1  0
  1 15  1  0
  1 16  1  0
  6 17  1  0
  7 18  1  0
  8 19  1  0
  9 20  1  0
 13 21  1  0
M  END
$$$$
Ibuprofen
     RDKit          3D

 33 33  0  0  0  0  0  0  0  0999 V2000
   -4.6738   -0.3459    0.1313 C   0  0  0  0  0  0  0  0  0  0  0  0
   -3.2232    0.0057   -0.1247 C   0  0  0  0  0  0  0  0  0  0  0  0
   -2.9246    1.3441    0.4342 C   0  0  0  0  0  0  0  0  0  0  0  0
   -2.3130   -1.0909    0.3367 C   0  0  0  0  0  0  0  0  0  0  0  0
   -0.8627   -0.7731    0.0970 C   0  0  0  0  0  0  0  0  0  0  0  0
   -0.0995   -0.1185    1.0451 C   0  0  0  0  0  0  0  0  0  0  0  0
    1.2396    0.1656    0.8031 C   0  0  0  0  0  0  0  0  0  0  0  0
    1.8215   -0.2129   -0.4083 C   0  0  0  0  0  0  0  0  0  0  0  0
    1.0720   -0.8680   -1.3661 C   0  0  0  0  0  0  0  0  0  0  0  0
   -0.2601   -1.1392   -1.1002 C   0  0  0  0  0  0  0  0  0  0  0  0
    3.2490    0.1240   -0.5909 C   0  0  0  0  0  0  0  0  0  0  0  0
    3.4202    1.6180   -0.5786 C   0  0  0  0  0  0  0  0  0  0  0  0
    4.1207   -0.5741    0.3725 C   0  0  0  0  0  0  0  0  0  0  0  0
    3.7040   -1.3699    1.2553 O   0  0  0  0  0  0  0  0  0  0  0  0
    5.4830   -0.3445    0.3078 O   0  0  0  0  0  0  0  0  0  0  0  0
   -4.9734    0.1735    1.0613 H   0  0  0  0  0  0  0  0  0  0  0  0
   -4.7199   -1.4565    0.2703 H   0  0  0  0  0  0  0  0  0  0  0  0
   -5.3433   -0.0762   -0.7209 H   0  0  0  0  0  0  0  0  0  0  0  0
   -3.1214    0.0527   -1.2486 H   0  0  0  0  0  0  0  0  0  0  0  0
   -2.0619    1.8773   -0.0048 H   0  0  0  0  0  0  0  0  0  0  0  0
   -2.7062    1.2797    1.5406 H   0  0  0  0  0  0  0  0  0  0  0  0
   -3.8173    2.0015    0.3822 H   0  0  0  0  0  0  0  0  0  0  0  0
   -2.5181   -1.3221    1.4027 H   0  0  0  0  0  0  0  0  0  0  0  0
   -2.4998   -2.0247   -0.2321 H   0  0  0  0  0  0  0  0  0  0  0  0
   -0.5442    0.1840    1.9997 H   0  0  0  0  0  0  0  0  0  0  0  0
    1.8286    0.6793    1.5534 H   0  0  0  0  0  0  0  0  0  0  0  0
    1.5610   -1.1415   -2.2857 H   0  0  0  0  0  0  0  0  0  0  0  0
   -0.8350   -1.6569   -1.8685 H   0  0  0  0  0  0  0  0  0  0  0  0
    3.5386   -0.2467   -1.5965 H   0  0  0  0  0  0  0  0  0  0  0  0
    2.4762    2.0444   -0.9986 H   0  0  0  0  0  0  0  0  0  0  0  0
    4.2307    1.9378   -1.2784 H   0  0  0  0  0  0  0  0  0  0  0  0
    3.5810    1.9912    0.4531 H   0  0  0  0  0  0  0  0  0  0  0  0
    6.1715   -0.7171    0.9272 H   0  0  0  0  0  0  0  0  0  0  0  0
  1  2  1  0
  2  3  1  0
  2  4  1  0
  4  5  1  0
  5  6  1  0
  6  7  2  0
  7  8  1  0
  8  9  2  0
  9 10  1  0
  8 11  1  0
 11 12  1  0
 11 13  1  0
 13 14  2  0
 13 15  1  0
 10  5  2  0
  1 16  1  0
  1 17  1  0
  1 18  1  0
  2 19  1  0
  3 20  1  0
  3 21  1  0
  3 22  1  0
  4 23  1  0
  4 24  1  0
  6 25  1  0
  7 26  1  0
  9 27  1  0
 10 28  1  0
 11 29  1  0
 12 30  1  0
 12 31  1  0
 12 32  1  0
 15 33  1  0
M  END
$$$$
Benzamidine
     RDKit          3D

 17 17  0  0  0  0  0  0  0  0999 V2000
   -2.5347   -0.7264   -0.4404 N   0  0  0  0  0  0  0  0  0  0  0  0
   -1.6819    0.3182    0.0712 C   0  0  0  0  0  0  0  0  0  0  0  0
   -2.1656    1.4160    0.5384 N   0  0  0  0  0  0  0  0  0  0  0  0
   -0.2144    0.1318    0.0625 C   0  0  0  0  0  0  0  0  0  0  0  0
    0.3418   -1.1398    0.1778 C   0  0  0  0  0  0  0  0  0  0  0  0
    1.7147   -1.2654    0.1649 C   0  0  0  0  0  0  0  0  0  0  0  0
    2.5479   -0.1582    0.0402 C   0  0  0  0  0  0  0  0  0  0  0  0
    1.9986    1.1233   -0.0763 C   0  0  0  0  0  0  0  0  0  0  0  0
    0.6055    1.2610   -0.0642 C   0  0  0  0  0  0  0  0  0  0  0  0
   -2.2777   -1.7443   -0.3052 H   0  0  0  0  0  0  0  0  0  0  0  0
   -3.4035   -0.4411   -0.9423 H   0  0  0  0  0  0  0  0  0  0  0  0
   -3.1955    1.5321    0.5379 H   0  0  0  0  0  0  0  0  0  0  0  0
   -0.2847   -2.0142    0.2758 H   0  0  0  0  0  0  0  0  0  0  0  0
    2.1318   -2.2600    0.2555 H   0  0  0  0  0  0  0  0  0  0  0  0
    3.6241   -0.2963    0.0339 H   0  0  0  0  0  0  0  0  0  0  0  0
    2.6280    1.9998   -0.1745 H   0  0  0  0  0  0  0  0  0  0  0  0
    0.1657    2.2634   -0.1551 H   0  0  0  0  0  0  0  0  0  0  0  0
  1  2  1  0
  2  3  2  3
  2  4  1  0
  4  5  2  0
  5  6  1  0
  6  7  2  0
  7  8  1  0
  8  9  2  0
  9  4  1  0
  1 10  1  0
  1 11  1  0
  3 12  1  0
  5 13  1  0
  6 14  1  0
  7 15  1  0
  8 16  1  0
  9 17  1  0
M  END
$$$$
